LAMMPS (9 Dec 2014)
variable        x index 1
variable        y index 1
variable        z index 1

variable        xx equal 20*$x
variable        xx equal 20*1
variable        yy equal 20*$y
variable        yy equal 20*1
variable        zz equal 20*$z
variable        zz equal 20*1

units           metal
atom_style      atomic

lattice         fcc 3.6100
Lattice spacing in x,y,z = 3.61 3.61 3.61
region          box block 0.0 20 0.0 20 0.0 20
create_box      1 box
Created orthogonal box = (0 0 0) to (72.2 72.2 72.2)
create_atoms    1 box
Created 32000 atoms

#pair_style      kim KIMvirial EAM_Johnson_NearestNeighbor_Cu__MO_887933271505_001
pair_style      kim KIMvirial EAM_Dynamo_Mendelev_King_Cu__MO_748636486270_001
pair_coeff      * * Cu

mass            1 63.546
velocity        all create 200.0 232345 loop geom

neighbor        0.3 bin
neigh_modify    delay 0 every 1 check yes

fix             1 all nve

thermo          100
run             10000
Step Temp E_pair E_mol TotEng Press
0          200    -109425.7            0   -108598.46    38682.742
Averages over the last 51 of 101 rows, steps 5000 to 10000:
Temp E_pair E_mol TotEng Press
101.307 -109017 0 -108598 39053.6
Loop time of 940.891 on 1 procs for 10000 steps with 32000 atoms

Pair  time (%) = 900.391 (95.6956)
Neigh time (%) = 30.594 (3.2516)
Comm  time (%) = 2.44882 (0.260266)
Outpt time (%) = 0.0121639 (0.0012928)
Other time (%) = 7.44469 (0.791239)
